17
XYZ from PySCF
Er          0.98362       15.50224       16.20791
O           1.99916       14.04659       17.74816
O           0.84986       13.23972       19.50945
O          -0.19106       14.33025       17.84416
O           0.07540       13.92262       14.73495
O           1.31004       13.04851       13.06769
O           2.20359       14.42901       14.57429
O          -1.14215       16.45878       15.99666
O           0.43680       17.10805       14.60956
O           1.47930       17.16268       17.75599
O           3.57408       17.92122       18.08709
O           3.08674       16.54913       16.37674
C           0.89328       13.85118       18.39468
C           1.20962       13.78394       14.09822
C          -0.82000       17.16058       14.96025
C           2.75767       17.22572       17.42293
O          -1.66553       17.83297       14.30785
