7
XYZ from PySCF
Dy          5.37150        5.37150        5.37150
Cl          8.09550        5.37150        5.37150
Cl          2.64750        5.37150        5.37150
Cl          5.37150        8.09550        5.37150
Cl          5.37150        2.64750        5.37150
Cl          5.37150        5.37150        8.09550
Cl          5.37150        5.37150        2.64750
